LAMMPS (17 Nov 2016)

# general preparation of simulation with real units as
# described in tutorial 1
atom_style      bond
units           real
dimension       3
boundary        p p p
processors      * 1 1

# sorting of atoms in internal neighboring list
atom_modify 	map array sort 10 1.0

# use a harmonic bond - bond coeff are defined in cofiguration file
bond_style      harmonic
# read the data from a configuraion file (could be created also form external software package)
read_data       data.1d.chain
  orthogonal box = (0 -1 -1) to (20 1 1)
  reading atoms ...
  10 atoms
  scanning bonds ...
  reading bonds ...
  10 bonds

# use lj-potential for stabilization purpose (enfocing 1D in LAMMPS)
pair_style	lj/cut 4
pair_coeff	* * 0.2376 2.0

# set variable for integration timestep
variable        dt equal 1
timestep        1

# set for output purposes
thermo          100
thermo_style	custom step temp pe etotal press pxx pyy pzz

# ----- Print structure
#dump            snap all custom 10000 snap.lammpstrj id type x y z
#dump            1 all atom 500 dum.chain_*.atom

# ----- Minimize energy at 0K

# find the equilibrium length of the simulaiton box
fix 		RELAX all box/relax x 0 couple none
minimize	0.0 1.0e-8 100000 1000000
  1 neighbor list requests
  update every 1 steps, delay 0 steps, check yes
Step Temp PotEng TotEng Press Pxx Pyy Pzz
0            0   -7.5928519   -7.5928519     21184.72   -11398.991    37476.575    37476.575
Loop time of 0.0139749 on 4 procs for 356 steps with 10 atoms

Minimization stats:
  Stopping criterion = force tolerance
  Energy initial, next-to-last, final =
  Force two-norm initial, final = 13.2994 1.77075e-12
  Force max component initial, final = 13.2994 1.05051e-12
  Final line search alpha, max atom move = 1 1.05051e-12
  Iterations, force evaluations = 356 358

unfix		RELAX
variable length equal "lx"
Length in x-direction (Angstoms) = 19.2906838114883;

# ----- Equilibration and thermalization

# assign temperature to particles
variable	T equal 0.01
velocity	all create $T 111 mom yes rot yes dist gaussian
velocity	all create 0.01 111 mom yes rot yes dist gaussian

# use a specific damping rate - observe which is stable
variable	tdamp equal 1000*1
fix             LANG all langevin 0.01 0.01 1000 222 zero yes
fix		NVE all nve
run		100000
  1 neighbor list requests
  update every 1 steps, delay 10 steps, check yes
Step Temp PotEng TotEng Press Pxx Pyy Pzz
356         0.01   -7.8287659   -7.8284976    25414.836   0.19845683    38122.187    38122.122
Averages over the last 501 of 1002 rows, steps 50400 to 100356:
Temp PotEng TotEng Press Pxx Pyy Pzz
0.0110963 -8.66788 -8.66758 19251.4 -19082.5 38417.5 38419.1
Loop time of 2.57381 on 4 procs for 100000 steps with 10 atoms

unfix           LANG
run		100000
Step Temp PotEng TotEng Press Pxx Pyy Pzz
100356 0.0095218968   -8.6911383   -8.6908829     19201.61   -19107.325    38455.295    38256.861
Averages over the last 501 of 1002 rows, steps 150400 to 200356:
Temp PotEng TotEng Press Pxx Pyy Pzz
0.00854828 -8.66841 -8.66818 19250.9 -19081.9 38411.2 38423.3
Loop time of 1.96362 on 4 procs for 100000 steps with 10 atoms

# ----- DEFORMATION

# since we restart everything set timestep to zero
reset_timestep	0

# directives for computing properties
compute         csym all centro/atom fcc
compute         peratom all pe/atom

# assign variables for estimating strain and strain reate
# first store length of the system
variable        tmp equal "lx"
variable        L0 equal 19.2906838114883

# assign a strain rate which should equilibriate after each step
variable        srate equal 1.0e10
variable        srate1 equal "v_srate / 1.0e15"
1e-05

fix	        2 all deform 1 x erate 1e-05 units box remap x

# Output strain and stress info to file
# for units metal, pressure is in [bars] = 100 [kPa] = 1/10000 [GPa]
# for units real, pressure is in [atm] = 101.325 [kPa] = 101.325e-6 [GPa]
# p2, p3, p4 are in GPa
variable        strain equal "(lx - v_L0)/v_L0"
variable        p1 equal "v_strain"
variable        p2 equal "-pxx*101.325e-6"
variable        p3 equal "-pyy*101.325e-6"
variable        p4 equal "-pzz*101.325e-6"

# fix for writing the strain and stresses to file

# writing trajectory
dump 		2 all atom 5000 ./dump/dump.tensile_*.atom #id type xs ys zs c_csym c_peratom fx fy fz

# Display thermo
thermo 	1000
thermo_style	custom step v_strain temp v_p2 v_p3 v_p4 ke pe press

run		200000
  2 neighbor list requests
  update every 1 steps, delay 10 steps, check yes
Step v_strain Temp v_p2 v_p3 v_p4 KinEng PotEng Press
0 -1.4733386e-15 0.0071149425    1.9391258   -3.8879337   -3.8927814 0.00019087463   -8.6764555    19217.335
Averages over the last 101 of 201 rows, steps 100000 to 200000:
v_strain Temp v_p2 v_p3 v_p4 KinEng PotEng Press
1.5 7.84683 49.0312 -1.88157 -1.88217 0.210509 412.262 -148918
Loop time of 2.82999 on 4 procs for 200000 steps with 10 atoms

######################################
# SIMULATION DONE
print "All done"
All done
