LAMMPS (17 Nov 2016)
variable InitLatPar equal 5.28
variable Tinit equal 15
variable Tequi equal 10
variable Pequi equal 1.0
variable TimeStep equal 1.0
variable Steps equal 200000

# ---- INITIALIZATION ----------------------------------------------------------
#we are handling an atomistic simulation
atom_style       atomic
#selectin units
units            real
#choose dimension of problem
dimension        2

# ---- ATOM DEFINITION ---------------------------------------------------------
# define lattice and lattice constant
lattice          sq2 5.28
Lattice spacing in x,y,z = 5.28 5.28 5.28
# create a block-region with the name box dimension of one lattice unit in each direction
region           box block 0 30 0 30 0 1 units lattice
#given this region create a simulation box with ID 1
create_box       1 box
Created orthogonal box = (0 0 0) to (158.4 158.4 5.28)
create_atoms     1 box
Created 1800 atoms
mass             1 39.958

# ---- DEFINE INTERATOMIC POTENTIAL --------------------------------------------
# define how the atoms interact: Lennard Jones Potential with cutoff
pair_style       lj/cut 12
#coefficients for potential: assigning fo all atoms, epsilon [energy units] sigma [diustance units]
pair_coeff * * 0.23818 3.405

# ---- COMPUTES ----------------------------------------------------------------
#compute the potential energy per atom
compute          eng all pe/atom
#computes the final energy of the cell system
compute          eatoms all reduce sum c_eng

# ---- EQUILIBRIATION ----------------------------------------------------------
# reset timestep
reset_timestep   0
#set an appropriate timestep for time integration
timestep         1
# assign velocity to particles according to temperature and seed
# additional parameters for particles with rotation
velocity         all create 15 12345 mom yes rot no
# thermostat integration for simulating the desired ensemble
# integration on Noose-Hoover hamiltonian equations of motion
fix              1 all npt temp 15 10 4000 iso 1 1 4000

# ---- DEFINE OUTPUT PROPERTIES/TRAJECTORIES -----------------------------------
thermo          100
# specify the thermodynamics to calculate and shwo as output
thermo_style     custom step lx ly lz press pxx pyy pzz pe temp pe ke etotal
#dump command for writing the trjectories every N=2000 steps
dump            1 all atom 2000 ./dump/dump.equilibriation_*.atom
dump            2 all cfg 2000 ./dump/dump.test.*.cfg mass type xs ys zs id type c_eng
# Run the simulkation for desired amount of timesteps until equilibriation
run             200000
  1 neighbor list requests
  update every 1 steps, delay 10 steps, check yes
Step Lx Ly Lz Press Pxx Pyy Pzz PotEng Temp PotEng KinEng TotEng
0        158.4        158.4         5.28    264.99612    263.76818    266.22406            0   -1139.3825           15   -1139.3825    53.624773   -1085.7578
Averages over the last 1001 of 2001 rows, steps 100000 to 200000:
Lx Ly Lz Press Pxx Pyy Pzz PotEng Temp PotEng KinEng TotEng
152.082 152.082 5.28 1.20147 -240.693 243.096 0 -1360.65 11.2788 -1360.65 40.3215 -1320.33
Loop time of 70.0404 on 4 procs for 200000 steps with 1800 atoms

# ---- DO THE NPT --------------------------------------------------------------
#equilibriation for constant NPT ensemble
unfix            1
fix              1 all npt temp 10 10 100 iso 1 1 100
# Run the simulation for the desired amount of timesteps until equilibriation
variable         tempSteps equal "v_Steps/10"
run              20000
Step Lx Ly Lz Press Pxx Pyy Pzz PotEng Temp PotEng KinEng TotEng
200000    151.76719    151.76719         5.28    44.406288   -215.68147    304.49405            0   -1369.0387    9.5911176   -1369.0387      34.2881   -1334.7506
Averages over the last 101 of 201 rows, steps 210000 to 220000:
Lx Ly Lz Press Pxx Pyy Pzz PotEng Temp PotEng KinEng TotEng
151.842 151.842 5.28 0.822748 -227.944 229.59 0 -1369.34 9.98583 -1369.34 35.6992 -1333.64
Loop time of 7.05944 on 4 procs for 20000 steps with 1800 atoms

# output the last configuration to use it as input for the following simulations
write_data       data.equi nocoeff
